ISO-10303-21;
HEADER;
/* Generated by software containing ST-Developer
 * from STEP Tools, Inc. (www.steptools.com) 
 */

FILE_DESCRIPTION(
/* description */ (''),
/* implementation_level */ '2;1');

FILE_NAME(
/* name */ 
'C:/Users/carlmagnusev/Documents/GitHub/LS-Dyna-FoldingBox/CAD-files/S
tj\X\E4rnstans/202813 extrude.step',
/* time_stamp */ '2020-10-28T13:30:14+01:00',
/* author */ (''),
/* organization */ (''),
/* preprocessor_version */ 'ST-DEVELOPER v18.1',
/* originating_system */ 'Autodesk Translation Framework v9.3.0.1241',
/* authorisation */ '');

FILE_SCHEMA (('AUTOMOTIVE_DESIGN { 1 0 10303 214 3 1 1 }'));
ENDSEC;

DATA;
#10=MECHANICAL_DESIGN_GEOMETRIC_PRESENTATION_REPRESENTATION('',(#13),#1173);
#11=SHAPE_REPRESENTATION_RELATIONSHIP('SRR','None',#1180,#12);
#12=ADVANCED_BREP_SHAPE_REPRESENTATION('',(#14),#1172);
#13=STYLED_ITEM('',(#1189),#14);
#14=MANIFOLD_SOLID_BREP('Body1',#737);
#15=FACE_OUTER_BOUND('',#51,.T.);
#16=FACE_OUTER_BOUND('',#52,.T.);
#17=FACE_OUTER_BOUND('',#53,.T.);
#18=FACE_OUTER_BOUND('',#54,.T.);
#19=FACE_OUTER_BOUND('',#55,.T.);
#20=FACE_OUTER_BOUND('',#56,.T.);
#21=FACE_OUTER_BOUND('',#57,.T.);
#22=FACE_OUTER_BOUND('',#58,.T.);
#23=FACE_OUTER_BOUND('',#59,.T.);
#24=FACE_OUTER_BOUND('',#60,.T.);
#25=FACE_OUTER_BOUND('',#61,.T.);
#26=FACE_OUTER_BOUND('',#62,.T.);
#27=FACE_OUTER_BOUND('',#63,.T.);
#28=FACE_OUTER_BOUND('',#64,.T.);
#29=FACE_OUTER_BOUND('',#65,.T.);
#30=FACE_OUTER_BOUND('',#66,.T.);
#31=FACE_OUTER_BOUND('',#67,.T.);
#32=FACE_OUTER_BOUND('',#68,.T.);
#33=FACE_OUTER_BOUND('',#69,.T.);
#34=FACE_OUTER_BOUND('',#70,.T.);
#35=FACE_OUTER_BOUND('',#71,.T.);
#36=FACE_OUTER_BOUND('',#72,.T.);
#37=FACE_OUTER_BOUND('',#73,.T.);
#38=FACE_OUTER_BOUND('',#74,.T.);
#39=FACE_OUTER_BOUND('',#75,.T.);
#40=FACE_OUTER_BOUND('',#76,.T.);
#41=FACE_OUTER_BOUND('',#77,.T.);
#42=FACE_OUTER_BOUND('',#78,.T.);
#43=FACE_OUTER_BOUND('',#79,.T.);
#44=FACE_OUTER_BOUND('',#80,.T.);
#45=FACE_OUTER_BOUND('',#81,.T.);
#46=FACE_OUTER_BOUND('',#82,.T.);
#47=FACE_OUTER_BOUND('',#83,.T.);
#48=FACE_OUTER_BOUND('',#84,.T.);
#49=FACE_OUTER_BOUND('',#85,.T.);
#50=FACE_OUTER_BOUND('',#86,.T.);
#51=EDGE_LOOP('',(#461,#462,#463,#464));
#52=EDGE_LOOP('',(#465,#466,#467,#468));
#53=EDGE_LOOP('',(#469,#470,#471,#472));
#54=EDGE_LOOP('',(#473,#474,#475,#476));
#55=EDGE_LOOP('',(#477,#478,#479,#480));
#56=EDGE_LOOP('',(#481,#482,#483,#484));
#57=EDGE_LOOP('',(#485,#486,#487,#488));
#58=EDGE_LOOP('',(#489,#490,#491,#492));
#59=EDGE_LOOP('',(#493,#494,#495,#496));
#60=EDGE_LOOP('',(#497,#498,#499,#500));
#61=EDGE_LOOP('',(#501,#502,#503,#504));
#62=EDGE_LOOP('',(#505,#506,#507,#508));
#63=EDGE_LOOP('',(#509,#510,#511,#512));
#64=EDGE_LOOP('',(#513,#514,#515,#516));
#65=EDGE_LOOP('',(#517,#518,#519,#520));
#66=EDGE_LOOP('',(#521,#522,#523,#524));
#67=EDGE_LOOP('',(#525,#526,#527,#528));
#68=EDGE_LOOP('',(#529,#530,#531,#532));
#69=EDGE_LOOP('',(#533,#534,#535,#536));
#70=EDGE_LOOP('',(#537,#538,#539,#540));
#71=EDGE_LOOP('',(#541,#542,#543,#544));
#72=EDGE_LOOP('',(#545,#546,#547,#548));
#73=EDGE_LOOP('',(#549,#550,#551,#552));
#74=EDGE_LOOP('',(#553,#554,#555,#556));
#75=EDGE_LOOP('',(#557,#558,#559,#560));
#76=EDGE_LOOP('',(#561,#562,#563,#564));
#77=EDGE_LOOP('',(#565,#566,#567,#568));
#78=EDGE_LOOP('',(#569,#570,#571,#572));
#79=EDGE_LOOP('',(#573,#574,#575,#576));
#80=EDGE_LOOP('',(#577,#578,#579,#580));
#81=EDGE_LOOP('',(#581,#582,#583,#584));
#82=EDGE_LOOP('',(#585,#586,#587,#588));
#83=EDGE_LOOP('',(#589,#590,#591,#592));
#84=EDGE_LOOP('',(#593,#594,#595,#596));
#85=EDGE_LOOP('',(#597,#598,#599,#600,#601,#602,#603,#604,#605,#606,#607,
#608,#609,#610,#611,#612,#613,#614,#615,#616,#617,#618,#619,#620,#621,#622,
#623,#624,#625,#626,#627,#628,#629,#630));
#86=EDGE_LOOP('',(#631,#632,#633,#634,#635,#636,#637,#638,#639,#640,#641,
#642,#643,#644,#645,#646,#647,#648,#649,#650,#651,#652,#653,#654,#655,#656,
#657,#658,#659,#660,#661,#662,#663,#664));
#87=LINE('',#967,#189);
#88=LINE('',#969,#190);
#89=LINE('',#971,#191);
#90=LINE('',#972,#192);
#91=LINE('',#975,#193);
#92=LINE('',#977,#194);
#93=LINE('',#978,#195);
#94=LINE('',#981,#196);
#95=LINE('',#983,#197);
#96=LINE('',#984,#198);
#97=LINE('',#987,#199);
#98=LINE('',#989,#200);
#99=LINE('',#990,#201);
#100=LINE('',#993,#202);
#101=LINE('',#995,#203);
#102=LINE('',#996,#204);
#103=LINE('',#999,#205);
#104=LINE('',#1001,#206);
#105=LINE('',#1002,#207);
#106=LINE('',#1005,#208);
#107=LINE('',#1007,#209);
#108=LINE('',#1008,#210);
#109=LINE('',#1011,#211);
#110=LINE('',#1013,#212);
#111=LINE('',#1014,#213);
#112=LINE('',#1017,#214);
#113=LINE('',#1019,#215);
#114=LINE('',#1020,#216);
#115=LINE('',#1023,#217);
#116=LINE('',#1025,#218);
#117=LINE('',#1026,#219);
#118=LINE('',#1029,#220);
#119=LINE('',#1031,#221);
#120=LINE('',#1032,#222);
#121=LINE('',#1035,#223);
#122=LINE('',#1037,#224);
#123=LINE('',#1038,#225);
#124=LINE('',#1041,#226);
#125=LINE('',#1043,#227);
#126=LINE('',#1044,#228);
#127=LINE('',#1047,#229);
#128=LINE('',#1049,#230);
#129=LINE('',#1050,#231);
#130=LINE('',#1053,#232);
#131=LINE('',#1055,#233);
#132=LINE('',#1056,#234);
#133=LINE('',#1059,#235);
#134=LINE('',#1061,#236);
#135=LINE('',#1062,#237);
#136=LINE('',#1065,#238);
#137=LINE('',#1067,#239);
#138=LINE('',#1068,#240);
#139=LINE('',#1071,#241);
#140=LINE('',#1073,#242);
#141=LINE('',#1074,#243);
#142=LINE('',#1077,#244);
#143=LINE('',#1079,#245);
#144=LINE('',#1080,#246);
#145=LINE('',#1083,#247);
#146=LINE('',#1085,#248);
#147=LINE('',#1086,#249);
#148=LINE('',#1089,#250);
#149=LINE('',#1091,#251);
#150=LINE('',#1092,#252);
#151=LINE('',#1095,#253);
#152=LINE('',#1097,#254);
#153=LINE('',#1098,#255);
#154=LINE('',#1101,#256);
#155=LINE('',#1103,#257);
#156=LINE('',#1104,#258);
#157=LINE('',#1107,#259);
#158=LINE('',#1109,#260);
#159=LINE('',#1110,#261);
#160=LINE('',#1113,#262);
#161=LINE('',#1115,#263);
#162=LINE('',#1116,#264);
#163=LINE('',#1119,#265);
#164=LINE('',#1121,#266);
#165=LINE('',#1122,#267);
#166=LINE('',#1125,#268);
#167=LINE('',#1127,#269);
#168=LINE('',#1128,#270);
#169=LINE('',#1131,#271);
#170=LINE('',#1133,#272);
#171=LINE('',#1134,#273);
#172=LINE('',#1137,#274);
#173=LINE('',#1139,#275);
#174=LINE('',#1140,#276);
#175=LINE('',#1143,#277);
#176=LINE('',#1145,#278);
#177=LINE('',#1146,#279);
#178=LINE('',#1149,#280);
#179=LINE('',#1151,#281);
#180=LINE('',#1152,#282);
#181=LINE('',#1155,#283);
#182=LINE('',#1157,#284);
#183=LINE('',#1158,#285);
#184=LINE('',#1161,#286);
#185=LINE('',#1163,#287);
#186=LINE('',#1164,#288);
#187=LINE('',#1166,#289);
#188=LINE('',#1167,#290);
#189=VECTOR('',#791,10.);
#190=VECTOR('',#792,10.);
#191=VECTOR('',#793,10.);
#192=VECTOR('',#794,10.);
#193=VECTOR('',#797,10.);
#194=VECTOR('',#798,10.);
#195=VECTOR('',#799,10.);
#196=VECTOR('',#802,10.);
#197=VECTOR('',#803,10.);
#198=VECTOR('',#804,10.);
#199=VECTOR('',#807,10.);
#200=VECTOR('',#808,10.);
#201=VECTOR('',#809,10.);
#202=VECTOR('',#812,10.);
#203=VECTOR('',#813,10.);
#204=VECTOR('',#814,10.);
#205=VECTOR('',#817,10.);
#206=VECTOR('',#818,10.);
#207=VECTOR('',#819,10.);
#208=VECTOR('',#822,10.);
#209=VECTOR('',#823,10.);
#210=VECTOR('',#824,10.);
#211=VECTOR('',#827,10.);
#212=VECTOR('',#828,10.);
#213=VECTOR('',#829,10.);
#214=VECTOR('',#832,10.);
#215=VECTOR('',#833,10.);
#216=VECTOR('',#834,10.);
#217=VECTOR('',#837,10.);
#218=VECTOR('',#838,10.);
#219=VECTOR('',#839,10.);
#220=VECTOR('',#842,10.);
#221=VECTOR('',#843,10.);
#222=VECTOR('',#844,10.);
#223=VECTOR('',#847,10.);
#224=VECTOR('',#848,10.);
#225=VECTOR('',#849,10.);
#226=VECTOR('',#852,10.);
#227=VECTOR('',#853,10.);
#228=VECTOR('',#854,10.);
#229=VECTOR('',#857,10.);
#230=VECTOR('',#858,10.);
#231=VECTOR('',#859,10.);
#232=VECTOR('',#862,10.);
#233=VECTOR('',#863,10.);
#234=VECTOR('',#864,10.);
#235=VECTOR('',#867,10.);
#236=VECTOR('',#868,10.);
#237=VECTOR('',#869,10.);
#238=VECTOR('',#872,10.);
#239=VECTOR('',#873,10.);
#240=VECTOR('',#874,10.);
#241=VECTOR('',#877,10.);
#242=VECTOR('',#878,10.);
#243=VECTOR('',#879,10.);
#244=VECTOR('',#882,10.);
#245=VECTOR('',#883,10.);
#246=VECTOR('',#884,10.);
#247=VECTOR('',#887,10.);
#248=VECTOR('',#888,10.);
#249=VECTOR('',#889,10.);
#250=VECTOR('',#892,10.);
#251=VECTOR('',#893,10.);
#252=VECTOR('',#894,10.);
#253=VECTOR('',#897,10.);
#254=VECTOR('',#898,10.);
#255=VECTOR('',#899,10.);
#256=VECTOR('',#902,10.);
#257=VECTOR('',#903,10.);
#258=VECTOR('',#904,10.);
#259=VECTOR('',#907,10.);
#260=VECTOR('',#908,10.);
#261=VECTOR('',#909,10.);
#262=VECTOR('',#912,10.);
#263=VECTOR('',#913,10.);
#264=VECTOR('',#914,10.);
#265=VECTOR('',#917,10.);
#266=VECTOR('',#918,10.);
#267=VECTOR('',#919,10.);
#268=VECTOR('',#922,10.);
#269=VECTOR('',#923,10.);
#270=VECTOR('',#924,10.);
#271=VECTOR('',#927,10.);
#272=VECTOR('',#928,10.);
#273=VECTOR('',#929,10.);
#274=VECTOR('',#932,10.);
#275=VECTOR('',#933,10.);
#276=VECTOR('',#934,10.);
#277=VECTOR('',#937,10.);
#278=VECTOR('',#938,10.);
#279=VECTOR('',#939,10.);
#280=VECTOR('',#942,10.);
#281=VECTOR('',#943,10.);
#282=VECTOR('',#944,10.);
#283=VECTOR('',#947,10.);
#284=VECTOR('',#948,10.);
#285=VECTOR('',#949,10.);
#286=VECTOR('',#952,10.);
#287=VECTOR('',#953,10.);
#288=VECTOR('',#954,10.);
#289=VECTOR('',#957,10.);
#290=VECTOR('',#958,10.);
#291=VERTEX_POINT('',#965);
#292=VERTEX_POINT('',#966);
#293=VERTEX_POINT('',#968);
#294=VERTEX_POINT('',#970);
#295=VERTEX_POINT('',#974);
#296=VERTEX_POINT('',#976);
#297=VERTEX_POINT('',#980);
#298=VERTEX_POINT('',#982);
#299=VERTEX_POINT('',#986);
#300=VERTEX_POINT('',#988);
#301=VERTEX_POINT('',#992);
#302=VERTEX_POINT('',#994);
#303=VERTEX_POINT('',#998);
#304=VERTEX_POINT('',#1000);
#305=VERTEX_POINT('',#1004);
#306=VERTEX_POINT('',#1006);
#307=VERTEX_POINT('',#1010);
#308=VERTEX_POINT('',#1012);
#309=VERTEX_POINT('',#1016);
#310=VERTEX_POINT('',#1018);
#311=VERTEX_POINT('',#1022);
#312=VERTEX_POINT('',#1024);
#313=VERTEX_POINT('',#1028);
#314=VERTEX_POINT('',#1030);
#315=VERTEX_POINT('',#1034);
#316=VERTEX_POINT('',#1036);
#317=VERTEX_POINT('',#1040);
#318=VERTEX_POINT('',#1042);
#319=VERTEX_POINT('',#1046);
#320=VERTEX_POINT('',#1048);
#321=VERTEX_POINT('',#1052);
#322=VERTEX_POINT('',#1054);
#323=VERTEX_POINT('',#1058);
#324=VERTEX_POINT('',#1060);
#325=VERTEX_POINT('',#1064);
#326=VERTEX_POINT('',#1066);
#327=VERTEX_POINT('',#1070);
#328=VERTEX_POINT('',#1072);
#329=VERTEX_POINT('',#1076);
#330=VERTEX_POINT('',#1078);
#331=VERTEX_POINT('',#1082);
#332=VERTEX_POINT('',#1084);
#333=VERTEX_POINT('',#1088);
#334=VERTEX_POINT('',#1090);
#335=VERTEX_POINT('',#1094);
#336=VERTEX_POINT('',#1096);
#337=VERTEX_POINT('',#1100);
#338=VERTEX_POINT('',#1102);
#339=VERTEX_POINT('',#1106);
#340=VERTEX_POINT('',#1108);
#341=VERTEX_POINT('',#1112);
#342=VERTEX_POINT('',#1114);
#343=VERTEX_POINT('',#1118);
#344=VERTEX_POINT('',#1120);
#345=VERTEX_POINT('',#1124);
#346=VERTEX_POINT('',#1126);
#347=VERTEX_POINT('',#1130);
#348=VERTEX_POINT('',#1132);
#349=VERTEX_POINT('',#1136);
#350=VERTEX_POINT('',#1138);
#351=VERTEX_POINT('',#1142);
#352=VERTEX_POINT('',#1144);
#353=VERTEX_POINT('',#1148);
#354=VERTEX_POINT('',#1150);
#355=VERTEX_POINT('',#1154);
#356=VERTEX_POINT('',#1156);
#357=VERTEX_POINT('',#1160);
#358=VERTEX_POINT('',#1162);
#359=EDGE_CURVE('',#291,#292,#87,.T.);
#360=EDGE_CURVE('',#291,#293,#88,.T.);
#361=EDGE_CURVE('',#294,#293,#89,.T.);
#362=EDGE_CURVE('',#292,#294,#90,.T.);
#363=EDGE_CURVE('',#292,#295,#91,.T.);
#364=EDGE_CURVE('',#296,#294,#92,.T.);
#365=EDGE_CURVE('',#295,#296,#93,.T.);
#366=EDGE_CURVE('',#297,#295,#94,.T.);
#367=EDGE_CURVE('',#298,#296,#95,.T.);
#368=EDGE_CURVE('',#297,#298,#96,.T.);
#369=EDGE_CURVE('',#299,#297,#97,.T.);
#370=EDGE_CURVE('',#300,#298,#98,.T.);
#371=EDGE_CURVE('',#299,#300,#99,.T.);
#372=EDGE_CURVE('',#299,#301,#100,.T.);
#373=EDGE_CURVE('',#302,#300,#101,.T.);
#374=EDGE_CURVE('',#301,#302,#102,.T.);
#375=EDGE_CURVE('',#303,#301,#103,.T.);
#376=EDGE_CURVE('',#304,#302,#104,.T.);
#377=EDGE_CURVE('',#303,#304,#105,.T.);
#378=EDGE_CURVE('',#305,#303,#106,.T.);
#379=EDGE_CURVE('',#306,#304,#107,.T.);
#380=EDGE_CURVE('',#305,#306,#108,.T.);
#381=EDGE_CURVE('',#307,#305,#109,.T.);
#382=EDGE_CURVE('',#308,#306,#110,.T.);
#383=EDGE_CURVE('',#307,#308,#111,.T.);
#384=EDGE_CURVE('',#307,#309,#112,.T.);
#385=EDGE_CURVE('',#310,#308,#113,.T.);
#386=EDGE_CURVE('',#309,#310,#114,.T.);
#387=EDGE_CURVE('',#309,#311,#115,.T.);
#388=EDGE_CURVE('',#312,#310,#116,.T.);
#389=EDGE_CURVE('',#311,#312,#117,.T.);
#390=EDGE_CURVE('',#313,#311,#118,.T.);
#391=EDGE_CURVE('',#314,#312,#119,.T.);
#392=EDGE_CURVE('',#313,#314,#120,.T.);
#393=EDGE_CURVE('',#313,#315,#121,.T.);
#394=EDGE_CURVE('',#316,#314,#122,.T.);
#395=EDGE_CURVE('',#315,#316,#123,.T.);
#396=EDGE_CURVE('',#315,#317,#124,.T.);
#397=EDGE_CURVE('',#318,#316,#125,.T.);
#398=EDGE_CURVE('',#317,#318,#126,.T.);
#399=EDGE_CURVE('',#319,#317,#127,.T.);
#400=EDGE_CURVE('',#320,#318,#128,.T.);
#401=EDGE_CURVE('',#319,#320,#129,.T.);
#402=EDGE_CURVE('',#321,#319,#130,.T.);
#403=EDGE_CURVE('',#322,#320,#131,.T.);
#404=EDGE_CURVE('',#321,#322,#132,.T.);
#405=EDGE_CURVE('',#321,#323,#133,.T.);
#406=EDGE_CURVE('',#324,#322,#134,.T.);
#407=EDGE_CURVE('',#323,#324,#135,.T.);
#408=EDGE_CURVE('',#323,#325,#136,.T.);
#409=EDGE_CURVE('',#326,#324,#137,.T.);
#410=EDGE_CURVE('',#325,#326,#138,.T.);
#411=EDGE_CURVE('',#325,#327,#139,.T.);
#412=EDGE_CURVE('',#328,#326,#140,.T.);
#413=EDGE_CURVE('',#327,#328,#141,.T.);
#414=EDGE_CURVE('',#329,#327,#142,.T.);
#415=EDGE_CURVE('',#330,#328,#143,.T.);
#416=EDGE_CURVE('',#329,#330,#144,.T.);
#417=EDGE_CURVE('',#329,#331,#145,.T.);
#418=EDGE_CURVE('',#332,#330,#146,.T.);
#419=EDGE_CURVE('',#331,#332,#147,.T.);
#420=EDGE_CURVE('',#331,#333,#148,.T.);
#421=EDGE_CURVE('',#334,#332,#149,.T.);
#422=EDGE_CURVE('',#333,#334,#150,.T.);
#423=EDGE_CURVE('',#335,#333,#151,.T.);
#424=EDGE_CURVE('',#336,#334,#152,.T.);
#425=EDGE_CURVE('',#335,#336,#153,.T.);
#426=EDGE_CURVE('',#337,#335,#154,.T.);
#427=EDGE_CURVE('',#338,#336,#155,.T.);
#428=EDGE_CURVE('',#337,#338,#156,.T.);
#429=EDGE_CURVE('',#337,#339,#157,.T.);
#430=EDGE_CURVE('',#340,#338,#158,.T.);
#431=EDGE_CURVE('',#339,#340,#159,.T.);
#432=EDGE_CURVE('',#339,#341,#160,.T.);
#433=EDGE_CURVE('',#342,#340,#161,.T.);
#434=EDGE_CURVE('',#341,#342,#162,.T.);
#435=EDGE_CURVE('',#341,#343,#163,.T.);
#436=EDGE_CURVE('',#344,#342,#164,.T.);
#437=EDGE_CURVE('',#343,#344,#165,.T.);
#438=EDGE_CURVE('',#345,#343,#166,.T.);
#439=EDGE_CURVE('',#346,#344,#167,.T.);
#440=EDGE_CURVE('',#345,#346,#168,.T.);
#441=EDGE_CURVE('',#345,#347,#169,.T.);
#442=EDGE_CURVE('',#348,#346,#170,.T.);
#443=EDGE_CURVE('',#347,#348,#171,.T.);
#444=EDGE_CURVE('',#347,#349,#172,.T.);
#445=EDGE_CURVE('',#350,#348,#173,.T.);
#446=EDGE_CURVE('',#349,#350,#174,.T.);
#447=EDGE_CURVE('',#351,#349,#175,.T.);
#448=EDGE_CURVE('',#352,#350,#176,.T.);
#449=EDGE_CURVE('',#351,#352,#177,.T.);
#450=EDGE_CURVE('',#353,#351,#178,.T.);
#451=EDGE_CURVE('',#354,#352,#179,.T.);
#452=EDGE_CURVE('',#353,#354,#180,.T.);
#453=EDGE_CURVE('',#353,#355,#181,.T.);
#454=EDGE_CURVE('',#356,#354,#182,.T.);
#455=EDGE_CURVE('',#355,#356,#183,.T.);
#456=EDGE_CURVE('',#357,#355,#184,.T.);
#457=EDGE_CURVE('',#358,#356,#185,.T.);
#458=EDGE_CURVE('',#357,#358,#186,.T.);
#459=EDGE_CURVE('',#291,#357,#187,.T.);
#460=EDGE_CURVE('',#293,#358,#188,.T.);
#461=ORIENTED_EDGE('',*,*,#359,.F.);
#462=ORIENTED_EDGE('',*,*,#360,.T.);
#463=ORIENTED_EDGE('',*,*,#361,.F.);
#464=ORIENTED_EDGE('',*,*,#362,.F.);
#465=ORIENTED_EDGE('',*,*,#363,.F.);
#466=ORIENTED_EDGE('',*,*,#362,.T.);
#467=ORIENTED_EDGE('',*,*,#364,.F.);
#468=ORIENTED_EDGE('',*,*,#365,.F.);
#469=ORIENTED_EDGE('',*,*,#366,.T.);
#470=ORIENTED_EDGE('',*,*,#365,.T.);
#471=ORIENTED_EDGE('',*,*,#367,.F.);
#472=ORIENTED_EDGE('',*,*,#368,.F.);
#473=ORIENTED_EDGE('',*,*,#369,.T.);
#474=ORIENTED_EDGE('',*,*,#368,.T.);
#475=ORIENTED_EDGE('',*,*,#370,.F.);
#476=ORIENTED_EDGE('',*,*,#371,.F.);
#477=ORIENTED_EDGE('',*,*,#372,.F.);
#478=ORIENTED_EDGE('',*,*,#371,.T.);
#479=ORIENTED_EDGE('',*,*,#373,.F.);
#480=ORIENTED_EDGE('',*,*,#374,.F.);
#481=ORIENTED_EDGE('',*,*,#375,.T.);
#482=ORIENTED_EDGE('',*,*,#374,.T.);
#483=ORIENTED_EDGE('',*,*,#376,.F.);
#484=ORIENTED_EDGE('',*,*,#377,.F.);
#485=ORIENTED_EDGE('',*,*,#378,.T.);
#486=ORIENTED_EDGE('',*,*,#377,.T.);
#487=ORIENTED_EDGE('',*,*,#379,.F.);
#488=ORIENTED_EDGE('',*,*,#380,.F.);
#489=ORIENTED_EDGE('',*,*,#381,.T.);
#490=ORIENTED_EDGE('',*,*,#380,.T.);
#491=ORIENTED_EDGE('',*,*,#382,.F.);
#492=ORIENTED_EDGE('',*,*,#383,.F.);
#493=ORIENTED_EDGE('',*,*,#384,.F.);
#494=ORIENTED_EDGE('',*,*,#383,.T.);
#495=ORIENTED_EDGE('',*,*,#385,.F.);
#496=ORIENTED_EDGE('',*,*,#386,.F.);
#497=ORIENTED_EDGE('',*,*,#387,.F.);
#498=ORIENTED_EDGE('',*,*,#386,.T.);
#499=ORIENTED_EDGE('',*,*,#388,.F.);
#500=ORIENTED_EDGE('',*,*,#389,.F.);
#501=ORIENTED_EDGE('',*,*,#390,.T.);
#502=ORIENTED_EDGE('',*,*,#389,.T.);
#503=ORIENTED_EDGE('',*,*,#391,.F.);
#504=ORIENTED_EDGE('',*,*,#392,.F.);
#505=ORIENTED_EDGE('',*,*,#393,.F.);
#506=ORIENTED_EDGE('',*,*,#392,.T.);
#507=ORIENTED_EDGE('',*,*,#394,.F.);
#508=ORIENTED_EDGE('',*,*,#395,.F.);
#509=ORIENTED_EDGE('',*,*,#396,.F.);
#510=ORIENTED_EDGE('',*,*,#395,.T.);
#511=ORIENTED_EDGE('',*,*,#397,.F.);
#512=ORIENTED_EDGE('',*,*,#398,.F.);
#513=ORIENTED_EDGE('',*,*,#399,.T.);
#514=ORIENTED_EDGE('',*,*,#398,.T.);
#515=ORIENTED_EDGE('',*,*,#400,.F.);
#516=ORIENTED_EDGE('',*,*,#401,.F.);
#517=ORIENTED_EDGE('',*,*,#402,.T.);
#518=ORIENTED_EDGE('',*,*,#401,.T.);
#519=ORIENTED_EDGE('',*,*,#403,.F.);
#520=ORIENTED_EDGE('',*,*,#404,.F.);
#521=ORIENTED_EDGE('',*,*,#405,.F.);
#522=ORIENTED_EDGE('',*,*,#404,.T.);
#523=ORIENTED_EDGE('',*,*,#406,.F.);
#524=ORIENTED_EDGE('',*,*,#407,.F.);
#525=ORIENTED_EDGE('',*,*,#408,.F.);
#526=ORIENTED_EDGE('',*,*,#407,.T.);
#527=ORIENTED_EDGE('',*,*,#409,.F.);
#528=ORIENTED_EDGE('',*,*,#410,.F.);
#529=ORIENTED_EDGE('',*,*,#411,.F.);
#530=ORIENTED_EDGE('',*,*,#410,.T.);
#531=ORIENTED_EDGE('',*,*,#412,.F.);
#532=ORIENTED_EDGE('',*,*,#413,.F.);
#533=ORIENTED_EDGE('',*,*,#414,.T.);
#534=ORIENTED_EDGE('',*,*,#413,.T.);
#535=ORIENTED_EDGE('',*,*,#415,.F.);
#536=ORIENTED_EDGE('',*,*,#416,.F.);
#537=ORIENTED_EDGE('',*,*,#417,.F.);
#538=ORIENTED_EDGE('',*,*,#416,.T.);
#539=ORIENTED_EDGE('',*,*,#418,.F.);
#540=ORIENTED_EDGE('',*,*,#419,.F.);
#541=ORIENTED_EDGE('',*,*,#420,.F.);
#542=ORIENTED_EDGE('',*,*,#419,.T.);
#543=ORIENTED_EDGE('',*,*,#421,.F.);
#544=ORIENTED_EDGE('',*,*,#422,.F.);
#545=ORIENTED_EDGE('',*,*,#423,.T.);
#546=ORIENTED_EDGE('',*,*,#422,.T.);
#547=ORIENTED_EDGE('',*,*,#424,.F.);
#548=ORIENTED_EDGE('',*,*,#425,.F.);
#549=ORIENTED_EDGE('',*,*,#426,.T.);
#550=ORIENTED_EDGE('',*,*,#425,.T.);
#551=ORIENTED_EDGE('',*,*,#427,.F.);
#552=ORIENTED_EDGE('',*,*,#428,.F.);
#553=ORIENTED_EDGE('',*,*,#429,.F.);
#554=ORIENTED_EDGE('',*,*,#428,.T.);
#555=ORIENTED_EDGE('',*,*,#430,.F.);
#556=ORIENTED_EDGE('',*,*,#431,.F.);
#557=ORIENTED_EDGE('',*,*,#432,.F.);
#558=ORIENTED_EDGE('',*,*,#431,.T.);
#559=ORIENTED_EDGE('',*,*,#433,.F.);
#560=ORIENTED_EDGE('',*,*,#434,.F.);
#561=ORIENTED_EDGE('',*,*,#435,.F.);
#562=ORIENTED_EDGE('',*,*,#434,.T.);
#563=ORIENTED_EDGE('',*,*,#436,.F.);
#564=ORIENTED_EDGE('',*,*,#437,.F.);
#565=ORIENTED_EDGE('',*,*,#438,.T.);
#566=ORIENTED_EDGE('',*,*,#437,.T.);
#567=ORIENTED_EDGE('',*,*,#439,.F.);
#568=ORIENTED_EDGE('',*,*,#440,.F.);
#569=ORIENTED_EDGE('',*,*,#441,.F.);
#570=ORIENTED_EDGE('',*,*,#440,.T.);
#571=ORIENTED_EDGE('',*,*,#442,.F.);
#572=ORIENTED_EDGE('',*,*,#443,.F.);
#573=ORIENTED_EDGE('',*,*,#444,.F.);
#574=ORIENTED_EDGE('',*,*,#443,.T.);
#575=ORIENTED_EDGE('',*,*,#445,.F.);
#576=ORIENTED_EDGE('',*,*,#446,.F.);
#577=ORIENTED_EDGE('',*,*,#447,.T.);
#578=ORIENTED_EDGE('',*,*,#446,.T.);
#579=ORIENTED_EDGE('',*,*,#448,.F.);
#580=ORIENTED_EDGE('',*,*,#449,.F.);
#581=ORIENTED_EDGE('',*,*,#450,.T.);
#582=ORIENTED_EDGE('',*,*,#449,.T.);
#583=ORIENTED_EDGE('',*,*,#451,.F.);
#584=ORIENTED_EDGE('',*,*,#452,.F.);
#585=ORIENTED_EDGE('',*,*,#453,.F.);
#586=ORIENTED_EDGE('',*,*,#452,.T.);
#587=ORIENTED_EDGE('',*,*,#454,.F.);
#588=ORIENTED_EDGE('',*,*,#455,.F.);
#589=ORIENTED_EDGE('',*,*,#456,.T.);
#590=ORIENTED_EDGE('',*,*,#455,.T.);
#591=ORIENTED_EDGE('',*,*,#457,.F.);
#592=ORIENTED_EDGE('',*,*,#458,.F.);
#593=ORIENTED_EDGE('',*,*,#459,.T.);
#594=ORIENTED_EDGE('',*,*,#458,.T.);
#595=ORIENTED_EDGE('',*,*,#460,.F.);
#596=ORIENTED_EDGE('',*,*,#360,.F.);
#597=ORIENTED_EDGE('',*,*,#460,.T.);
#598=ORIENTED_EDGE('',*,*,#457,.T.);
#599=ORIENTED_EDGE('',*,*,#454,.T.);
#600=ORIENTED_EDGE('',*,*,#451,.T.);
#601=ORIENTED_EDGE('',*,*,#448,.T.);
#602=ORIENTED_EDGE('',*,*,#445,.T.);
#603=ORIENTED_EDGE('',*,*,#442,.T.);
#604=ORIENTED_EDGE('',*,*,#439,.T.);
#605=ORIENTED_EDGE('',*,*,#436,.T.);
#606=ORIENTED_EDGE('',*,*,#433,.T.);
#607=ORIENTED_EDGE('',*,*,#430,.T.);
#608=ORIENTED_EDGE('',*,*,#427,.T.);
#609=ORIENTED_EDGE('',*,*,#424,.T.);
#610=ORIENTED_EDGE('',*,*,#421,.T.);
#611=ORIENTED_EDGE('',*,*,#418,.T.);
#612=ORIENTED_EDGE('',*,*,#415,.T.);
#613=ORIENTED_EDGE('',*,*,#412,.T.);
#614=ORIENTED_EDGE('',*,*,#409,.T.);
#615=ORIENTED_EDGE('',*,*,#406,.T.);
#616=ORIENTED_EDGE('',*,*,#403,.T.);
#617=ORIENTED_EDGE('',*,*,#400,.T.);
#618=ORIENTED_EDGE('',*,*,#397,.T.);
#619=ORIENTED_EDGE('',*,*,#394,.T.);
#620=ORIENTED_EDGE('',*,*,#391,.T.);
#621=ORIENTED_EDGE('',*,*,#388,.T.);
#622=ORIENTED_EDGE('',*,*,#385,.T.);
#623=ORIENTED_EDGE('',*,*,#382,.T.);
#624=ORIENTED_EDGE('',*,*,#379,.T.);
#625=ORIENTED_EDGE('',*,*,#376,.T.);
#626=ORIENTED_EDGE('',*,*,#373,.T.);
#627=ORIENTED_EDGE('',*,*,#370,.T.);
#628=ORIENTED_EDGE('',*,*,#367,.T.);
#629=ORIENTED_EDGE('',*,*,#364,.T.);
#630=ORIENTED_EDGE('',*,*,#361,.T.);
#631=ORIENTED_EDGE('',*,*,#459,.F.);
#632=ORIENTED_EDGE('',*,*,#359,.T.);
#633=ORIENTED_EDGE('',*,*,#363,.T.);
#634=ORIENTED_EDGE('',*,*,#366,.F.);
#635=ORIENTED_EDGE('',*,*,#369,.F.);
#636=ORIENTED_EDGE('',*,*,#372,.T.);
#637=ORIENTED_EDGE('',*,*,#375,.F.);
#638=ORIENTED_EDGE('',*,*,#378,.F.);
#639=ORIENTED_EDGE('',*,*,#381,.F.);
#640=ORIENTED_EDGE('',*,*,#384,.T.);
#641=ORIENTED_EDGE('',*,*,#387,.T.);
#642=ORIENTED_EDGE('',*,*,#390,.F.);
#643=ORIENTED_EDGE('',*,*,#393,.T.);
#644=ORIENTED_EDGE('',*,*,#396,.T.);
#645=ORIENTED_EDGE('',*,*,#399,.F.);
#646=ORIENTED_EDGE('',*,*,#402,.F.);
#647=ORIENTED_EDGE('',*,*,#405,.T.);
#648=ORIENTED_EDGE('',*,*,#408,.T.);
#649=ORIENTED_EDGE('',*,*,#411,.T.);
#650=ORIENTED_EDGE('',*,*,#414,.F.);
#651=ORIENTED_EDGE('',*,*,#417,.T.);
#652=ORIENTED_EDGE('',*,*,#420,.T.);
#653=ORIENTED_EDGE('',*,*,#423,.F.);
#654=ORIENTED_EDGE('',*,*,#426,.F.);
#655=ORIENTED_EDGE('',*,*,#429,.T.);
#656=ORIENTED_EDGE('',*,*,#432,.T.);
#657=ORIENTED_EDGE('',*,*,#435,.T.);
#658=ORIENTED_EDGE('',*,*,#438,.F.);
#659=ORIENTED_EDGE('',*,*,#441,.T.);
#660=ORIENTED_EDGE('',*,*,#444,.T.);
#661=ORIENTED_EDGE('',*,*,#447,.F.);
#662=ORIENTED_EDGE('',*,*,#450,.F.);
#663=ORIENTED_EDGE('',*,*,#453,.T.);
#664=ORIENTED_EDGE('',*,*,#456,.F.);
#665=PLANE('',#751);
#666=PLANE('',#752);
#667=PLANE('',#753);
#668=PLANE('',#754);
#669=PLANE('',#755);
#670=PLANE('',#756);
#671=PLANE('',#757);
#672=PLANE('',#758);
#673=PLANE('',#759);
#674=PLANE('',#760);
#675=PLANE('',#761);
#676=PLANE('',#762);
#677=PLANE('',#763);
#678=PLANE('',#764);
#679=PLANE('',#765);
#680=PLANE('',#766);
#681=PLANE('',#767);
#682=PLANE('',#768);
#683=PLANE('',#769);
#684=PLANE('',#770);
#685=PLANE('',#771);
#686=PLANE('',#772);
#687=PLANE('',#773);
#688=PLANE('',#774);
#689=PLANE('',#775);
#690=PLANE('',#776);
#691=PLANE('',#777);
#692=PLANE('',#778);
#693=PLANE('',#779);
#694=PLANE('',#780);
#695=PLANE('',#781);
#696=PLANE('',#782);
#697=PLANE('',#783);
#698=PLANE('',#784);
#699=PLANE('',#785);
#700=PLANE('',#786);
#701=ADVANCED_FACE('',(#15),#665,.T.);
#702=ADVANCED_FACE('',(#16),#666,.T.);
#703=ADVANCED_FACE('',(#17),#667,.T.);
#704=ADVANCED_FACE('',(#18),#668,.T.);
#705=ADVANCED_FACE('',(#19),#669,.T.);
#706=ADVANCED_FACE('',(#20),#670,.T.);
#707=ADVANCED_FACE('',(#21),#671,.T.);
#708=ADVANCED_FACE('',(#22),#672,.T.);
#709=ADVANCED_FACE('',(#23),#673,.T.);
#710=ADVANCED_FACE('',(#24),#674,.T.);
#711=ADVANCED_FACE('',(#25),#675,.T.);
#712=ADVANCED_FACE('',(#26),#676,.T.);
#713=ADVANCED_FACE('',(#27),#677,.T.);
#714=ADVANCED_FACE('',(#28),#678,.T.);
#715=ADVANCED_FACE('',(#29),#679,.T.);
#716=ADVANCED_FACE('',(#30),#680,.T.);
#717=ADVANCED_FACE('',(#31),#681,.T.);
#718=ADVANCED_FACE('',(#32),#682,.T.);
#719=ADVANCED_FACE('',(#33),#683,.T.);
#720=ADVANCED_FACE('',(#34),#684,.T.);
#721=ADVANCED_FACE('',(#35),#685,.T.);
#722=ADVANCED_FACE('',(#36),#686,.T.);
#723=ADVANCED_FACE('',(#37),#687,.T.);
#724=ADVANCED_FACE('',(#38),#688,.T.);
#725=ADVANCED_FACE('',(#39),#689,.T.);
#726=ADVANCED_FACE('',(#40),#690,.T.);
#727=ADVANCED_FACE('',(#41),#691,.T.);
#728=ADVANCED_FACE('',(#42),#692,.T.);
#729=ADVANCED_FACE('',(#43),#693,.T.);
#730=ADVANCED_FACE('',(#44),#694,.T.);
#731=ADVANCED_FACE('',(#45),#695,.T.);
#732=ADVANCED_FACE('',(#46),#696,.T.);
#733=ADVANCED_FACE('',(#47),#697,.T.);
#734=ADVANCED_FACE('',(#48),#698,.T.);
#735=ADVANCED_FACE('',(#49),#699,.T.);
#736=ADVANCED_FACE('',(#50),#700,.F.);
#737=CLOSED_SHELL('',(#701,#702,#703,#704,#705,#706,#707,#708,#709,#710,
#711,#712,#713,#714,#715,#716,#717,#718,#719,#720,#721,#722,#723,#724,#725,
#726,#727,#728,#729,#730,#731,#732,#733,#734,#735,#736));
#738=DERIVED_UNIT_ELEMENT(#740,1.);
#739=DERIVED_UNIT_ELEMENT(#1175,3.);
#740=(
MASS_UNIT()
NAMED_UNIT(*)
SI_UNIT(.KILO.,.GRAM.)
);
#741=DERIVED_UNIT((#738,#739));
#742=MEASURE_REPRESENTATION_ITEM('density measure',
POSITIVE_RATIO_MEASURE(7850.),#741);
#743=PROPERTY_DEFINITION_REPRESENTATION(#748,#745);
#744=PROPERTY_DEFINITION_REPRESENTATION(#749,#746);
#745=REPRESENTATION('material name',(#747),#1172);
#746=REPRESENTATION('density',(#742),#1172);
#747=DESCRIPTIVE_REPRESENTATION_ITEM('Steel','Steel');
#748=PROPERTY_DEFINITION('material property','material name',#1182);
#749=PROPERTY_DEFINITION('material property','density of part',#1182);
#750=AXIS2_PLACEMENT_3D('placement',#963,#787,#788);
#751=AXIS2_PLACEMENT_3D('',#964,#789,#790);
#752=AXIS2_PLACEMENT_3D('',#973,#795,#796);
#753=AXIS2_PLACEMENT_3D('',#979,#800,#801);
#754=AXIS2_PLACEMENT_3D('',#985,#805,#806);
#755=AXIS2_PLACEMENT_3D('',#991,#810,#811);
#756=AXIS2_PLACEMENT_3D('',#997,#815,#816);
#757=AXIS2_PLACEMENT_3D('',#1003,#820,#821);
#758=AXIS2_PLACEMENT_3D('',#1009,#825,#826);
#759=AXIS2_PLACEMENT_3D('',#1015,#830,#831);
#760=AXIS2_PLACEMENT_3D('',#1021,#835,#836);
#761=AXIS2_PLACEMENT_3D('',#1027,#840,#841);
#762=AXIS2_PLACEMENT_3D('',#1033,#845,#846);
#763=AXIS2_PLACEMENT_3D('',#1039,#850,#851);
#764=AXIS2_PLACEMENT_3D('',#1045,#855,#856);
#765=AXIS2_PLACEMENT_3D('',#1051,#860,#861);
#766=AXIS2_PLACEMENT_3D('',#1057,#865,#866);
#767=AXIS2_PLACEMENT_3D('',#1063,#870,#871);
#768=AXIS2_PLACEMENT_3D('',#1069,#875,#876);
#769=AXIS2_PLACEMENT_3D('',#1075,#880,#881);
#770=AXIS2_PLACEMENT_3D('',#1081,#885,#886);
#771=AXIS2_PLACEMENT_3D('',#1087,#890,#891);
#772=AXIS2_PLACEMENT_3D('',#1093,#895,#896);
#773=AXIS2_PLACEMENT_3D('',#1099,#900,#901);
#774=AXIS2_PLACEMENT_3D('',#1105,#905,#906);
#775=AXIS2_PLACEMENT_3D('',#1111,#910,#911);
#776=AXIS2_PLACEMENT_3D('',#1117,#915,#916);
#777=AXIS2_PLACEMENT_3D('',#1123,#920,#921);
#778=AXIS2_PLACEMENT_3D('',#1129,#925,#926);
#779=AXIS2_PLACEMENT_3D('',#1135,#930,#931);
#780=AXIS2_PLACEMENT_3D('',#1141,#935,#936);
#781=AXIS2_PLACEMENT_3D('',#1147,#940,#941);
#782=AXIS2_PLACEMENT_3D('',#1153,#945,#946);
#783=AXIS2_PLACEMENT_3D('',#1159,#950,#951);
#784=AXIS2_PLACEMENT_3D('',#1165,#955,#956);
#785=AXIS2_PLACEMENT_3D('',#1168,#959,#960);
#786=AXIS2_PLACEMENT_3D('',#1169,#961,#962);
#787=DIRECTION('axis',(0.,0.,1.));
#788=DIRECTION('refdir',(1.,0.,0.));
#789=DIRECTION('center_axis',(-1.,0.,0.));
#790=DIRECTION('ref_axis',(0.,-1.,0.));
#791=DIRECTION('',(0.,1.,0.));
#792=DIRECTION('',(0.,0.,1.));
#793=DIRECTION('',(0.,-1.,0.));
#794=DIRECTION('',(0.,0.,1.));
#795=DIRECTION('center_axis',(0.,-1.,0.));
#796=DIRECTION('ref_axis',(1.,0.,0.));
#797=DIRECTION('',(-1.,0.,0.));
#798=DIRECTION('',(1.,0.,0.));
#799=DIRECTION('',(0.,0.,1.));
#800=DIRECTION('center_axis',(1.,0.,0.));
#801=DIRECTION('ref_axis',(0.,1.,0.));
#802=DIRECTION('',(0.,1.,0.));
#803=DIRECTION('',(0.,1.,0.));
#804=DIRECTION('',(0.,0.,1.));
#805=DIRECTION('center_axis',(0.,-1.,0.));
#806=DIRECTION('ref_axis',(1.,0.,0.));
#807=DIRECTION('',(1.,0.,0.));
#808=DIRECTION('',(1.,0.,0.));
#809=DIRECTION('',(0.,0.,1.));
#810=DIRECTION('center_axis',(-1.,0.,0.));
#811=DIRECTION('ref_axis',(0.,-1.,0.));
#812=DIRECTION('',(0.,1.,0.));
#813=DIRECTION('',(0.,-1.,0.));
#814=DIRECTION('',(0.,0.,1.));
#815=DIRECTION('center_axis',(0.,-1.,0.));
#816=DIRECTION('ref_axis',(1.,0.,0.));
#817=DIRECTION('',(1.,0.,0.));
#818=DIRECTION('',(1.,0.,0.));
#819=DIRECTION('',(0.,0.,1.));
#820=DIRECTION('center_axis',(1.,0.,0.));
#821=DIRECTION('ref_axis',(0.,1.,0.));
#822=DIRECTION('',(0.,1.,0.));
#823=DIRECTION('',(0.,1.,0.));
#824=DIRECTION('',(0.,0.,1.));
#825=DIRECTION('center_axis',(-3.04480255293846E-16,-1.,0.));
#826=DIRECTION('ref_axis',(1.,-3.04480255293846E-16,0.));
#827=DIRECTION('',(1.,-3.04480255293846E-16,0.));
#828=DIRECTION('',(1.,-3.04480255293846E-16,0.));
#829=DIRECTION('',(0.,0.,1.));
#830=DIRECTION('center_axis',(-1.,0.,0.));
#831=DIRECTION('ref_axis',(0.,-1.,0.));
#832=DIRECTION('',(0.,1.,0.));
#833=DIRECTION('',(0.,-1.,0.));
#834=DIRECTION('',(0.,0.,1.));
#835=DIRECTION('center_axis',(0.,-1.,0.));
#836=DIRECTION('ref_axis',(1.,0.,0.));
#837=DIRECTION('',(-1.,0.,0.));
#838=DIRECTION('',(1.,0.,0.));
#839=DIRECTION('',(0.,0.,1.));
#840=DIRECTION('center_axis',(1.,0.,0.));
#841=DIRECTION('ref_axis',(0.,1.,0.));
#842=DIRECTION('',(0.,1.,0.));
#843=DIRECTION('',(0.,1.,0.));
#844=DIRECTION('',(0.,0.,1.));
#845=DIRECTION('center_axis',(-1.13600501340597E-16,-1.,0.));
#846=DIRECTION('ref_axis',(1.,-1.13600501340597E-16,0.));
#847=DIRECTION('',(-1.,1.13600501340597E-16,0.));
#848=DIRECTION('',(1.,-1.13600501340597E-16,0.));
#849=DIRECTION('',(0.,0.,1.));
#850=DIRECTION('center_axis',(-1.,0.,0.));
#851=DIRECTION('ref_axis',(0.,-1.,0.));
#852=DIRECTION('',(0.,1.,0.));
#853=DIRECTION('',(0.,-1.,0.));
#854=DIRECTION('',(0.,0.,1.));
#855=DIRECTION('center_axis',(0.,-1.,0.));
#856=DIRECTION('ref_axis',(1.,0.,0.));
#857=DIRECTION('',(1.,0.,0.));
#858=DIRECTION('',(1.,0.,0.));
#859=DIRECTION('',(0.,0.,1.));
#860=DIRECTION('center_axis',(-0.258819045102521,-0.965925826289068,0.));
#861=DIRECTION('ref_axis',(0.965925826289068,-0.258819045102521,0.));
#862=DIRECTION('',(0.965925826289068,-0.258819045102521,0.));
#863=DIRECTION('',(0.965925826289068,-0.258819045102521,0.));
#864=DIRECTION('',(0.,0.,1.));
#865=DIRECTION('center_axis',(-1.,0.,0.));
#866=DIRECTION('ref_axis',(0.,-1.,0.));
#867=DIRECTION('',(0.,1.,0.));
#868=DIRECTION('',(0.,-1.,0.));
#869=DIRECTION('',(0.,0.,1.));
#870=DIRECTION('center_axis',(-0.258819045102522,0.965925826289068,0.));
#871=DIRECTION('ref_axis',(-0.965925826289068,-0.258819045102522,0.));
#872=DIRECTION('',(0.965925826289068,0.258819045102522,0.));
#873=DIRECTION('',(-0.965925826289068,-0.258819045102522,0.));
#874=DIRECTION('',(0.,0.,1.));
#875=DIRECTION('center_axis',(1.11896493820488E-14,1.,0.));
#876=DIRECTION('ref_axis',(-1.,1.11896493820488E-14,0.));
#877=DIRECTION('',(1.,-1.11896493820488E-14,0.));
#878=DIRECTION('',(-1.,1.11896493820488E-14,0.));
#879=DIRECTION('',(0.,0.,1.));
#880=DIRECTION('center_axis',(-1.,0.,0.));
#881=DIRECTION('ref_axis',(0.,-1.,0.));
#882=DIRECTION('',(0.,-1.,0.));
#883=DIRECTION('',(0.,-1.,0.));
#884=DIRECTION('',(0.,0.,1.));
#885=DIRECTION('center_axis',(0.,1.,0.));
#886=DIRECTION('ref_axis',(-1.,0.,0.));
#887=DIRECTION('',(1.,0.,0.));
#888=DIRECTION('',(-1.,0.,0.));
#889=DIRECTION('',(0.,0.,1.));
#890=DIRECTION('center_axis',(1.,0.,0.));
#891=DIRECTION('ref_axis',(0.,1.,0.));
#892=DIRECTION('',(0.,-1.,0.));
#893=DIRECTION('',(0.,1.,0.));
#894=DIRECTION('',(0.,0.,1.));
#895=DIRECTION('center_axis',(0.,1.,0.));
#896=DIRECTION('ref_axis',(-1.,0.,0.));
#897=DIRECTION('',(-1.,0.,0.));
#898=DIRECTION('',(-1.,0.,0.));
#899=DIRECTION('',(0.,0.,1.));
#900=DIRECTION('center_axis',(-1.,0.,0.));
#901=DIRECTION('ref_axis',(0.,-1.,0.));
#902=DIRECTION('',(0.,-1.,0.));
#903=DIRECTION('',(0.,-1.,0.));
#904=DIRECTION('',(0.,0.,1.));
#905=DIRECTION('center_axis',(0.,1.,0.));
#906=DIRECTION('ref_axis',(-1.,0.,0.));
#907=DIRECTION('',(1.,0.,0.));
#908=DIRECTION('',(-1.,0.,0.));
#909=DIRECTION('',(0.,0.,1.));
#910=DIRECTION('center_axis',(1.,0.,0.));
#911=DIRECTION('ref_axis',(0.,1.,0.));
#912=DIRECTION('',(0.,-1.,0.));
#913=DIRECTION('',(0.,1.,0.));
#914=DIRECTION('',(0.,0.,1.));
#915=DIRECTION('center_axis',(0.,1.,0.));
#916=DIRECTION('ref_axis',(-1.,0.,0.));
#917=DIRECTION('',(1.,0.,0.));
#918=DIRECTION('',(-1.,0.,0.));
#919=DIRECTION('',(0.,0.,1.));
#920=DIRECTION('center_axis',(-1.,0.,0.));
#921=DIRECTION('ref_axis',(0.,-1.,0.));
#922=DIRECTION('',(0.,-1.,0.));
#923=DIRECTION('',(0.,-1.,0.));
#924=DIRECTION('',(0.,0.,1.));
#925=DIRECTION('center_axis',(0.,1.,0.));
#926=DIRECTION('ref_axis',(-1.,0.,0.));
#927=DIRECTION('',(1.,0.,0.));
#928=DIRECTION('',(-1.,0.,0.));
#929=DIRECTION('',(0.,0.,1.));
#930=DIRECTION('center_axis',(1.,0.,0.));
#931=DIRECTION('ref_axis',(0.,1.,0.));
#932=DIRECTION('',(0.,-1.,0.));
#933=DIRECTION('',(0.,1.,0.));
#934=DIRECTION('',(0.,0.,1.));
#935=DIRECTION('center_axis',(0.,1.,0.));
#936=DIRECTION('ref_axis',(-1.,0.,0.));
#937=DIRECTION('',(-1.,0.,0.));
#938=DIRECTION('',(-1.,0.,0.));
#939=DIRECTION('',(0.,0.,1.));
#940=DIRECTION('center_axis',(-1.,0.,0.));
#941=DIRECTION('ref_axis',(0.,-1.,0.));
#942=DIRECTION('',(0.,-1.,0.));
#943=DIRECTION('',(0.,-1.,0.));
#944=DIRECTION('',(0.,0.,1.));
#945=DIRECTION('center_axis',(0.,1.,0.));
#946=DIRECTION('ref_axis',(-1.,0.,0.));
#947=DIRECTION('',(1.,0.,0.));
#948=DIRECTION('',(-1.,0.,0.));
#949=DIRECTION('',(0.,0.,1.));
#950=DIRECTION('center_axis',(1.,0.,0.));
#951=DIRECTION('ref_axis',(0.,1.,0.));
#952=DIRECTION('',(0.,1.,0.));
#953=DIRECTION('',(0.,1.,0.));
#954=DIRECTION('',(0.,0.,1.));
#955=DIRECTION('center_axis',(-1.52240127646923E-16,-1.,0.));
#956=DIRECTION('ref_axis',(1.,-1.52240127646923E-16,0.));
#957=DIRECTION('',(1.,-1.52240127646923E-16,0.));
#958=DIRECTION('',(1.,-1.52240127646923E-16,0.));
#959=DIRECTION('center_axis',(0.,0.,1.));
#960=DIRECTION('ref_axis',(1.,0.,0.));
#961=DIRECTION('center_axis',(0.,0.,1.));
#962=DIRECTION('ref_axis',(1.,0.,0.));
#963=CARTESIAN_POINT('',(0.,0.,0.));
#964=CARTESIAN_POINT('Origin',(5715.,-2578.1,0.));
#965=CARTESIAN_POINT('',(5715.,-4546.6,0.));
#966=CARTESIAN_POINT('',(5715.,-2578.1,0.));
#967=CARTESIAN_POINT('',(5715.,-4546.6,0.));
#968=CARTESIAN_POINT('',(5715.,-4546.6,1.));
#969=CARTESIAN_POINT('',(5715.,-4546.6,0.));
#970=CARTESIAN_POINT('',(5715.,-2578.1,1.));
#971=CARTESIAN_POINT('',(5715.,-4546.6,1.));
#972=CARTESIAN_POINT('',(5715.,-2578.1,0.));
#973=CARTESIAN_POINT('Origin',(5562.6,-2578.1,0.));
#974=CARTESIAN_POINT('',(5562.6,-2578.1,0.));
#975=CARTESIAN_POINT('',(5715.,-2578.1,0.));
#976=CARTESIAN_POINT('',(5562.6,-2578.1,1.));
#977=CARTESIAN_POINT('',(5715.,-2578.1,1.));
#978=CARTESIAN_POINT('',(5562.6,-2578.1,0.));
#979=CARTESIAN_POINT('Origin',(5562.6,-4546.6,0.));
#980=CARTESIAN_POINT('',(5562.6,-4546.6,0.));
#981=CARTESIAN_POINT('',(5562.6,-4546.6,0.));
#982=CARTESIAN_POINT('',(5562.6,-4546.6,1.));
#983=CARTESIAN_POINT('',(5562.6,-4546.6,1.));
#984=CARTESIAN_POINT('',(5562.6,-4546.6,0.));
#985=CARTESIAN_POINT('Origin',(558.8,-4546.6,0.));
#986=CARTESIAN_POINT('',(558.8,-4546.6,0.));
#987=CARTESIAN_POINT('',(558.8,-4546.6,0.));
#988=CARTESIAN_POINT('',(558.8,-4546.6,1.));
#989=CARTESIAN_POINT('',(558.8,-4546.6,1.));
#990=CARTESIAN_POINT('',(558.8,-4546.6,0.));
#991=CARTESIAN_POINT('Origin',(558.8,-2578.1,0.));
#992=CARTESIAN_POINT('',(558.8,-2578.1,0.));
#993=CARTESIAN_POINT('',(558.8,-4546.6,0.));
#994=CARTESIAN_POINT('',(558.8,-2578.1,1.));
#995=CARTESIAN_POINT('',(558.8,-4546.6,1.));
#996=CARTESIAN_POINT('',(558.8,-2578.1,0.));
#997=CARTESIAN_POINT('Origin',(406.4,-2578.1,0.));
#998=CARTESIAN_POINT('',(406.4,-2578.1,0.));
#999=CARTESIAN_POINT('',(406.4,-2578.1,0.));
#1000=CARTESIAN_POINT('',(406.4,-2578.1,1.));
#1001=CARTESIAN_POINT('',(406.4,-2578.1,1.));
#1002=CARTESIAN_POINT('',(406.4,-2578.1,0.));
#1003=CARTESIAN_POINT('Origin',(406.4,-4546.6,0.));
#1004=CARTESIAN_POINT('',(406.4,-4546.6,0.));
#1005=CARTESIAN_POINT('',(406.4,-4546.6,0.));
#1006=CARTESIAN_POINT('',(406.4,-4546.6,1.));
#1007=CARTESIAN_POINT('',(406.4,-4546.6,1.));
#1008=CARTESIAN_POINT('',(406.4,-4546.6,0.));
#1009=CARTESIAN_POINT('Origin',(-3327.4,-4546.6,0.));
#1010=CARTESIAN_POINT('',(-3327.4,-4546.6,0.));
#1011=CARTESIAN_POINT('',(-3327.4,-4546.6,0.));
#1012=CARTESIAN_POINT('',(-3327.4,-4546.6,1.));
#1013=CARTESIAN_POINT('',(-3327.4,-4546.6,1.));
#1014=CARTESIAN_POINT('',(-3327.4,-4546.6,0.));
#1015=CARTESIAN_POINT('Origin',(-3327.4,-2578.1,0.));
#1016=CARTESIAN_POINT('',(-3327.4,-2578.1,0.));
#1017=CARTESIAN_POINT('',(-3327.4,-4546.6,0.));
#1018=CARTESIAN_POINT('',(-3327.4,-2578.1,1.));
#1019=CARTESIAN_POINT('',(-3327.4,-4546.6,1.));
#1020=CARTESIAN_POINT('',(-3327.4,-2578.1,0.));
#1021=CARTESIAN_POINT('Origin',(-3479.8,-2578.1,0.));
#1022=CARTESIAN_POINT('',(-3479.8,-2578.1,0.));
#1023=CARTESIAN_POINT('',(-3327.4,-2578.1,0.));
#1024=CARTESIAN_POINT('',(-3479.8,-2578.1,1.));
#1025=CARTESIAN_POINT('',(-3327.4,-2578.1,1.));
#1026=CARTESIAN_POINT('',(-3479.8,-2578.1,0.));
#1027=CARTESIAN_POINT('Origin',(-3479.8,-4546.6,0.));
#1028=CARTESIAN_POINT('',(-3479.8,-4546.6,0.));
#1029=CARTESIAN_POINT('',(-3479.8,-4546.6,0.));
#1030=CARTESIAN_POINT('',(-3479.8,-4546.6,1.));
#1031=CARTESIAN_POINT('',(-3479.8,-4546.6,1.));
#1032=CARTESIAN_POINT('',(-3479.8,-4546.6,0.));
#1033=CARTESIAN_POINT('Origin',(-8483.6,-4546.6,0.));
#1034=CARTESIAN_POINT('',(-8483.6,-4546.6,0.));
#1035=CARTESIAN_POINT('',(-3479.8,-4546.6,0.));
#1036=CARTESIAN_POINT('',(-8483.6,-4546.6,1.));
#1037=CARTESIAN_POINT('',(-3479.8,-4546.6,1.));
#1038=CARTESIAN_POINT('',(-8483.6,-4546.6,0.));
#1039=CARTESIAN_POINT('Origin',(-8483.6,-2578.1,0.));
#1040=CARTESIAN_POINT('',(-8483.6,-2578.1,0.));
#1041=CARTESIAN_POINT('',(-8483.6,-4546.6,0.));
#1042=CARTESIAN_POINT('',(-8483.6,-2578.1,1.));
#1043=CARTESIAN_POINT('',(-8483.6,-4546.6,1.));
#1044=CARTESIAN_POINT('',(-8483.6,-2578.1,0.));
#1045=CARTESIAN_POINT('Origin',(-8636.,-2578.1,0.));
#1046=CARTESIAN_POINT('',(-8636.,-2578.1,0.));
#1047=CARTESIAN_POINT('',(-8636.,-2578.1,0.));
#1048=CARTESIAN_POINT('',(-8636.,-2578.1,1.));
#1049=CARTESIAN_POINT('',(-8636.,-2578.1,1.));
#1050=CARTESIAN_POINT('',(-8636.,-2578.1,0.));
#1051=CARTESIAN_POINT('Origin',(-9448.8,-2360.31089639198,0.));
#1052=CARTESIAN_POINT('',(-9448.8,-2360.31089639198,0.));
#1053=CARTESIAN_POINT('',(-9448.8,-2360.31089639198,0.));
#1054=CARTESIAN_POINT('',(-9448.8,-2360.31089639198,1.));
#1055=CARTESIAN_POINT('',(-9448.8,-2360.31089639198,1.));
#1056=CARTESIAN_POINT('',(-9448.8,-2360.31089639198,0.));
#1057=CARTESIAN_POINT('Origin',(-9448.8,2360.31089639198,0.));
#1058=CARTESIAN_POINT('',(-9448.8,2360.31089639198,0.));
#1059=CARTESIAN_POINT('',(-9448.8,-2360.31089639198,0.));
#1060=CARTESIAN_POINT('',(-9448.8,2360.31089639198,1.));
#1061=CARTESIAN_POINT('',(-9448.8,-2360.31089639198,1.));
#1062=CARTESIAN_POINT('',(-9448.8,2360.31089639198,0.));
#1063=CARTESIAN_POINT('Origin',(-8636.,2578.1,0.));
#1064=CARTESIAN_POINT('',(-8636.,2578.1,0.));
#1065=CARTESIAN_POINT('',(-9448.8,2360.31089639198,0.));
#1066=CARTESIAN_POINT('',(-8636.,2578.1,1.));
#1067=CARTESIAN_POINT('',(-9448.8,2360.31089639198,1.));
#1068=CARTESIAN_POINT('',(-8636.,2578.1,0.));
#1069=CARTESIAN_POINT('Origin',(-8483.6,2578.1,0.));
#1070=CARTESIAN_POINT('',(-8483.6,2578.1,0.));
#1071=CARTESIAN_POINT('',(-8636.,2578.1,0.));
#1072=CARTESIAN_POINT('',(-8483.6,2578.1,1.));
#1073=CARTESIAN_POINT('',(-8636.,2578.1,1.));
#1074=CARTESIAN_POINT('',(-8483.6,2578.1,0.));
#1075=CARTESIAN_POINT('Origin',(-8483.6,4546.6,0.));
#1076=CARTESIAN_POINT('',(-8483.6,4546.6,0.));
#1077=CARTESIAN_POINT('',(-8483.6,4546.6,0.));
#1078=CARTESIAN_POINT('',(-8483.6,4546.6,1.));
#1079=CARTESIAN_POINT('',(-8483.6,4546.6,1.));
#1080=CARTESIAN_POINT('',(-8483.6,4546.6,0.));
#1081=CARTESIAN_POINT('Origin',(-3479.8,4546.6,0.));
#1082=CARTESIAN_POINT('',(-3479.8,4546.6,0.));
#1083=CARTESIAN_POINT('',(-8483.6,4546.6,0.));
#1084=CARTESIAN_POINT('',(-3479.8,4546.6,1.));
#1085=CARTESIAN_POINT('',(-8483.6,4546.6,1.));
#1086=CARTESIAN_POINT('',(-3479.8,4546.6,0.));
#1087=CARTESIAN_POINT('Origin',(-3479.8,2578.1,0.));
#1088=CARTESIAN_POINT('',(-3479.8,2578.1,0.));
#1089=CARTESIAN_POINT('',(-3479.8,4546.6,0.));
#1090=CARTESIAN_POINT('',(-3479.8,2578.1,1.));
#1091=CARTESIAN_POINT('',(-3479.8,4546.6,1.));
#1092=CARTESIAN_POINT('',(-3479.8,2578.1,0.));
#1093=CARTESIAN_POINT('Origin',(-3327.4,2578.1,0.));
#1094=CARTESIAN_POINT('',(-3327.4,2578.1,0.));
#1095=CARTESIAN_POINT('',(-3327.4,2578.1,0.));
#1096=CARTESIAN_POINT('',(-3327.4,2578.1,1.));
#1097=CARTESIAN_POINT('',(-3327.4,2578.1,1.));
#1098=CARTESIAN_POINT('',(-3327.4,2578.1,0.));
#1099=CARTESIAN_POINT('Origin',(-3327.4,4546.6,0.));
#1100=CARTESIAN_POINT('',(-3327.4,4546.6,0.));
#1101=CARTESIAN_POINT('',(-3327.4,4546.6,0.));
#1102=CARTESIAN_POINT('',(-3327.4,4546.6,1.));
#1103=CARTESIAN_POINT('',(-3327.4,4546.6,1.));
#1104=CARTESIAN_POINT('',(-3327.4,4546.6,0.));
#1105=CARTESIAN_POINT('Origin',(406.4,4546.6,0.));
#1106=CARTESIAN_POINT('',(406.4,4546.6,0.));
#1107=CARTESIAN_POINT('',(-3327.4,4546.6,0.));
#1108=CARTESIAN_POINT('',(406.4,4546.6,1.));
#1109=CARTESIAN_POINT('',(-3327.4,4546.6,1.));
#1110=CARTESIAN_POINT('',(406.4,4546.6,0.));
#1111=CARTESIAN_POINT('Origin',(406.4,2578.1,0.));
#1112=CARTESIAN_POINT('',(406.4,2578.1,0.));
#1113=CARTESIAN_POINT('',(406.4,4546.6,0.));
#1114=CARTESIAN_POINT('',(406.4,2578.1,1.));
#1115=CARTESIAN_POINT('',(406.4,4546.6,1.));
#1116=CARTESIAN_POINT('',(406.4,2578.1,0.));
#1117=CARTESIAN_POINT('Origin',(558.8,2578.1,0.));
#1118=CARTESIAN_POINT('',(558.8,2578.1,0.));
#1119=CARTESIAN_POINT('',(406.4,2578.1,0.));
#1120=CARTESIAN_POINT('',(558.8,2578.1,1.));
#1121=CARTESIAN_POINT('',(406.4,2578.1,1.));
#1122=CARTESIAN_POINT('',(558.8,2578.1,0.));
#1123=CARTESIAN_POINT('Origin',(558.8,4546.6,0.));
#1124=CARTESIAN_POINT('',(558.8,4546.6,0.));
#1125=CARTESIAN_POINT('',(558.8,4546.6,0.));
#1126=CARTESIAN_POINT('',(558.8,4546.6,1.));
#1127=CARTESIAN_POINT('',(558.8,4546.6,1.));
#1128=CARTESIAN_POINT('',(558.8,4546.6,0.));
#1129=CARTESIAN_POINT('Origin',(5562.6,4546.6,0.));
#1130=CARTESIAN_POINT('',(5562.6,4546.6,0.));
#1131=CARTESIAN_POINT('',(558.8,4546.6,0.));
#1132=CARTESIAN_POINT('',(5562.6,4546.6,1.));
#1133=CARTESIAN_POINT('',(558.8,4546.6,1.));
#1134=CARTESIAN_POINT('',(5562.6,4546.6,0.));
#1135=CARTESIAN_POINT('Origin',(5562.6,2578.1,0.));
#1136=CARTESIAN_POINT('',(5562.6,2578.1,0.));
#1137=CARTESIAN_POINT('',(5562.6,4546.6,0.));
#1138=CARTESIAN_POINT('',(5562.6,2578.1,1.));
#1139=CARTESIAN_POINT('',(5562.6,4546.6,1.));
#1140=CARTESIAN_POINT('',(5562.6,2578.1,0.));
#1141=CARTESIAN_POINT('Origin',(5715.,2578.1,0.));
#1142=CARTESIAN_POINT('',(5715.,2578.1,0.));
#1143=CARTESIAN_POINT('',(5715.,2578.1,0.));
#1144=CARTESIAN_POINT('',(5715.,2578.1,1.));
#1145=CARTESIAN_POINT('',(5715.,2578.1,1.));
#1146=CARTESIAN_POINT('',(5715.,2578.1,0.));
#1147=CARTESIAN_POINT('Origin',(5715.,4546.6,0.));
#1148=CARTESIAN_POINT('',(5715.,4546.6,0.));
#1149=CARTESIAN_POINT('',(5715.,4546.6,0.));
#1150=CARTESIAN_POINT('',(5715.,4546.6,1.));
#1151=CARTESIAN_POINT('',(5715.,4546.6,1.));
#1152=CARTESIAN_POINT('',(5715.,4546.6,0.));
#1153=CARTESIAN_POINT('Origin',(9448.8,4546.6,0.));
#1154=CARTESIAN_POINT('',(9448.8,4546.6,0.));
#1155=CARTESIAN_POINT('',(5715.,4546.6,0.));
#1156=CARTESIAN_POINT('',(9448.8,4546.6,1.));
#1157=CARTESIAN_POINT('',(5715.,4546.6,1.));
#1158=CARTESIAN_POINT('',(9448.8,4546.6,0.));
#1159=CARTESIAN_POINT('Origin',(9448.8,-4546.6,0.));
#1160=CARTESIAN_POINT('',(9448.8,-4546.6,0.));
#1161=CARTESIAN_POINT('',(9448.8,-4546.6,0.));
#1162=CARTESIAN_POINT('',(9448.8,-4546.6,1.));
#1163=CARTESIAN_POINT('',(9448.8,-4546.6,1.));
#1164=CARTESIAN_POINT('',(9448.8,-4546.6,0.));
#1165=CARTESIAN_POINT('Origin',(5715.,-4546.6,0.));
#1166=CARTESIAN_POINT('',(5715.,-4546.6,0.));
#1167=CARTESIAN_POINT('',(5715.,-4546.6,1.));
#1168=CARTESIAN_POINT('Origin',(0.,0.,1.));
#1169=CARTESIAN_POINT('Origin',(0.,0.,0.));
#1170=UNCERTAINTY_MEASURE_WITH_UNIT(LENGTH_MEASURE(0.01),#1174,
'DISTANCE_ACCURACY_VALUE',
'Maximum model space distance between geometric entities at asserted c
onnectivities');
#1171=UNCERTAINTY_MEASURE_WITH_UNIT(LENGTH_MEASURE(0.01),#1174,
'DISTANCE_ACCURACY_VALUE',
'Maximum model space distance between geometric entities at asserted c
onnectivities');
#1172=(
GEOMETRIC_REPRESENTATION_CONTEXT(3)
GLOBAL_UNCERTAINTY_ASSIGNED_CONTEXT((#1170))
GLOBAL_UNIT_ASSIGNED_CONTEXT((#1174,#1176,#1177))
REPRESENTATION_CONTEXT('','3D')
);
#1173=(
GEOMETRIC_REPRESENTATION_CONTEXT(3)
GLOBAL_UNCERTAINTY_ASSIGNED_CONTEXT((#1171))
GLOBAL_UNIT_ASSIGNED_CONTEXT((#1174,#1176,#1177))
REPRESENTATION_CONTEXT('','3D')
);
#1174=(
LENGTH_UNIT()
NAMED_UNIT(*)
SI_UNIT(.MILLI.,.METRE.)
);
#1175=(
LENGTH_UNIT()
NAMED_UNIT(*)
SI_UNIT($,.METRE.)
);
#1176=(
NAMED_UNIT(*)
PLANE_ANGLE_UNIT()
SI_UNIT($,.RADIAN.)
);
#1177=(
NAMED_UNIT(*)
SI_UNIT($,.STERADIAN.)
SOLID_ANGLE_UNIT()
);
#1178=SHAPE_DEFINITION_REPRESENTATION(#1179,#1180);
#1179=PRODUCT_DEFINITION_SHAPE('',$,#1182);
#1180=SHAPE_REPRESENTATION('',(#750),#1172);
#1181=PRODUCT_DEFINITION_CONTEXT('part definition',#1186,'design');
#1182=PRODUCT_DEFINITION('202813','202813 v1',#1183,#1181);
#1183=PRODUCT_DEFINITION_FORMATION('',$,#1188);
#1184=PRODUCT_RELATED_PRODUCT_CATEGORY('202813 v1','202813 v1',(#1188));
#1185=APPLICATION_PROTOCOL_DEFINITION('international standard',
'automotive_design',2009,#1186);
#1186=APPLICATION_CONTEXT(
'Core Data for Automotive Mechanical Design Process');
#1187=PRODUCT_CONTEXT('part definition',#1186,'mechanical');
#1188=PRODUCT('202813','202813 v1',$,(#1187));
#1189=PRESENTATION_STYLE_ASSIGNMENT((#1190));
#1190=SURFACE_STYLE_USAGE(.BOTH.,#1191);
#1191=SURFACE_SIDE_STYLE('',(#1192));
#1192=SURFACE_STYLE_FILL_AREA(#1193);
#1193=FILL_AREA_STYLE('Steel - Satin',(#1194));
#1194=FILL_AREA_STYLE_COLOUR('Steel - Satin',#1195);
#1195=COLOUR_RGB('Steel - Satin',0.627450980392157,0.627450980392157,0.627450980392157);
ENDSEC;
END-ISO-10303-21;
